/*--------------------------------*- C++ -*----------------------------------*\
  =========                 |
  \\      /  F ield         | OpenFOAM: The Open Source CFD Toolbox
   \\    /   O peration     | Website:  https://openfoam.org
    \\  /    A nd           | Version:  dev
     \\/     M anipulation  |
\*---------------------------------------------------------------------------*/
FoamFile
{
    version     2.0;
    format      ascii;
    class       volScalarField;
    location    "0";
    object      O2;
}
// * * * * * * * * * * * * * * * * * * * * * * * * * * * * * * * * * * * * * //

dimensions      [0 0 0 0 0 0 0];

internalField  #codeStream
{

    code
    #{

        const IOdictionary& d = static_cast<const IOdictionary&>(dict);
        const fvMesh& mesh = refCast<const fvMesh>(d.db());
        const vectorField& CC = mesh.C(); //cell center


        scalarField O2(mesh.nCells());
        scalar O2_i = 0.23;

        scalar A = 0.23;
        scalar L = 0.008;
        scalar ro = 0.0004;
        scalar B = 5;



        forAll(CC,cellI)
        {


        	scalar y = CC[cellI].y();

            O2[cellI] = O2_i - A * 0.5 * (1-tanh(B*(mag(y-L/2)/ro - ro/mag(y-L/2))));

        }

        writeEntry(os,"",O2);
    #};

    //! Optional:
    codeInclude
    #{
        #include "volFields.H"
    #};


    codeOptions
    #{

        -I$(LIB_SRC)/finiteVolume/lnInclude \
        -I$(LIB_SRC)/meshTools/lnInclude

    #};


    //! libs:

    codeLibs
    #{
        -lmeshTools \
        -lfiniteVolume
    #};

};


boundaryField
{
    ".*"
    {
        type            cyclic;
    }
}


// ************************************************************************* //
