/*--------------------------------*- C++ -*----------------------------------*\
  =========                 |
  \\      /  F ield         | OpenFOAM: The Open Source CFD Toolbox
   \\    /   O peration     | Website:  https://openfoam.org
    \\  /    A nd           | Version:  dev
     \\/     M anipulation  |
\*---------------------------------------------------------------------------*/
FoamFile
{
    format      ascii;
    class       dictionary;
    location    "constant";
    object      chemistryProperties;
}
// * * * * * * * * * * * * * * * * * * * * * * * * * * * * * * * * * * * * * //

chemistryType
{
    solver            none;
    //solver            gpuChemistryModel;
    method            gpuChemistryModel;
    //solver          none;
    //method          gpuChemistryModel;
   //solver       someName;
}

chemistry       on;

initialChemicalTimeStep 1e-7;

EulerImplicitCoeffs
{
    cTauChem        1;
}

odeCoeffs
{
    //solver          seulex;
    solver          Rosenbrock34;
    absTol          1e-12;
    relTol          1e-1;
}

#include "reactions"

// ************************************************************************* //
